#compdef d_hydro
# Documentation: https://oss.deltares.nl/web/delft3d/faq
# Delft3D-FLOW driver; takes one XML config argument (config_d_hydro.xml).

local ret=1

_arguments -s -S \
  '1:config file:_files -g "*.xml"' && ret=0

return ret
