#compdef ww3_grid
# Documentation: https://github.com/NOAA-EMC/WW3/wiki
# WAVEWATCH III grid preprocessor; reads ww3_grid.inp / ww3_grid.nml (no CLI flags).

local ret=1

_arguments -s -S \
  '*:input file:_files -g "ww3_grid.(inp|nml)"' && ret=0

return ret
