#compdef ww3_bound
# Documentation: https://github.com/NOAA-EMC/WW3/wiki
# WAVEWATCH III boundary conditions program; reads ww3_bound.inp / ww3_bound.nml (no CLI flags).

local ret=1

_arguments -s -S \
  '*:input file:_files -g "ww3_bound.(inp|nml)"' && ret=0

return ret
