#compdef ww3_strt
# Documentation: https://github.com/NOAA-EMC/WW3/wiki
# WAVEWATCH III initial conditions program; reads ww3_strt.inp / ww3_strt.nml (no CLI flags).

local ret=1

_arguments -s -S \
  '*:input file:_files -g "ww3_strt.(inp|nml)"' && ret=0

return ret
