#compdef ww3_grib
# Documentation: https://github.com/NOAA-EMC/WW3/wiki
# WAVEWATCH III GRIB output post-processor; reads ww3_grib.inp / ww3_grib.nml (no CLI flags).

local ret=1

_arguments -s -S \
  '*:input file:_files -g "ww3_grib.(inp|nml)"' && ret=0

return ret
