#compdef ww3_gint
# Documentation: https://github.com/NOAA-EMC/WW3/wiki
# WAVEWATCH III grid interpolation program; reads ww3_gint.inp / ww3_gint.nml (no CLI flags).

local ret=1

_arguments -s -S \
  '*:input file:_files -g "ww3_gint.(inp|nml)"' && ret=0

return ret
