#compdef ww3_outf
# Documentation: https://github.com/NOAA-EMC/WW3/wiki
# WAVEWATCH III gridded output post-processor; reads ww3_outf.inp / ww3_outf.nml (no CLI flags).

local ret=1

_arguments -s -S \
  '*:input file:_files -g "ww3_outf.(inp|nml)"' && ret=0

return ret
