#compdef ww3_trnc
# Documentation: https://github.com/NOAA-EMC/WW3/wiki
# WAVEWATCH III NetCDF track output post-processor; reads ww3_trnc.inp / ww3_trnc.nml (no CLI flags).

local ret=1

_arguments -s -S \
  '*:input file:_files -g "ww3_trnc.(inp|nml)"' && ret=0

return ret
