#compdef ww3_prep
# Documentation: https://github.com/NOAA-EMC/WW3/wiki
# WAVEWATCH III field preprocessor; reads ww3_prep.inp / ww3_prep.nml (no CLI flags).

local ret=1

_arguments -s -S \
  '*:input file:_files -g "ww3_prep.(inp|nml)"' && ret=0

return ret
