#compdef ww3_outp
# Documentation: https://github.com/NOAA-EMC/WW3/wiki
# WAVEWATCH III point output post-processor; reads ww3_outp.inp / ww3_outp.nml (no CLI flags).

local ret=1

_arguments -s -S \
  '*:input file:_files -g "ww3_outp.(inp|nml)"' && ret=0

return ret
