#compdef ww3_systrk
# Documentation: https://github.com/NOAA-EMC/WW3/wiki
# WAVEWATCH III wave system tracking post-processor; reads ww3_systrk.inp (no CLI flags).

local ret=1

_arguments -s -S \
  '*:input file:_files -g "ww3_systrk.(inp|nml)"' && ret=0

return ret
