#compdef ww3_shel
# Documentation: https://github.com/NOAA-EMC/WW3/wiki
# WAVEWATCH III single-grid model driver; reads ww3_shel.inp / ww3_shel.nml (no CLI flags).

local ret=1

_arguments -s -S \
  '*:input file:_files -g "ww3_shel.(inp|nml)"' && ret=0

return ret
